/*--------------------------------*- C++ -*----------------------------------*\ 
|             BlockMeshDict generated by hexBlocker                           | 
\*---------------------------------------------------------------------------*/ 
FoamFile 
{
	 version 	 2.0;
	 format 	 ascii;
	 class 		 dictionary; 
	 object 	 blockMeshDict; 
}
convertToMeters 1;

vertices
(
	(0 0 -50) //0
	(100 0 -50) //1
	(100 10 -50) //2
	(0 10 -50) //3
	(0 0 50) //4
	(100 0 50) //5
	(100 10 50) //6
	(0 10 50) //7 
	(200 0 -150) //8
	(200 10 -150) //9
	(300 10 -150) //10
	(300 0 -150) //11
	(200 0 -650) //12
	(200 10 -650) //13
	(300 10 -650) //14
	(300 0 -650) //15
	(190 0 -150) //16
	(190 10 -150) //17
	(190 10 -650) //18
	(190 0 -650) //19
	(100 0 -150) //20
	(100 10 -150) //21
	(100 10 -650) //22
	(100 0 -650) //23
	(0 0 -150) //24
	(0 10 -150) //25
	(0 10 -650) //26
	(0 0 -650) //27
	(100 0 -60) //28
	(163.6 0 -86.36) //29
	(163.6 10 -86.36) //30
	(100 10 -60) //31

);

blocks
(
	 hex (0 1 2 3 4 5 6 7) (10 10 10) simpleGrading (1 1 1)
	 hex (1 8 9 2 5 11 10 6) (10 10 10) simpleGrading (1 1 1)
	 hex (8 12 13 9 11 15 14 10) (10 10 10) simpleGrading (1 1 1)
	 hex (16 19 18 17 8 12 13 9) (10 10 10) simpleGrading (1 1 1)
	 hex (20 23 22 21 16 19 18 17) (10 10 10) simpleGrading (1 1 1)
	 hex (24 27 26 25 20 23 22 21) (10 10 10) simpleGrading (1 1 1)
	 hex (28 20 21 31 29 16 17 30) (10 10 10) simpleGrading (1 1 1)

);

boundary
(
);

edges
(
	arc 8 1 (169.253 0 -77.8613) 
	arc 9 2 (169.253 10 -77.8613) 
	arc 10 6 (238.506 10 -5.72254) 
	arc 11 5 (238.506 0 -5.72254) 
	arc 17 30 (182.836 10 -114.852) 
	arc 16 29 (182.836 0 -114.852) 
	arc 29 28 (133.717 0 -66.5701) 
	arc 30 31 (133.717 10 -66.5701) 
);

