/*--------------------------------*- C++ -*----------------------------------*\ 
|             BlockMeshDict generated by hexBlocker                           | 
\*---------------------------------------------------------------------------*/ 
FoamFile 
{
	 version 	 2.0;
	 format 	 ascii;
	 class 		 dictionary; 
	 object 	 blockMeshDict; 
}
convertToMeters 1;

vertices
(
	(1, 0, -1) //0
	(1.4, 0, -1) //1
	(5, 0, -1) //2
	(5, 0.989949, -1) //3
	(0.989949, 0.989949, -1) //4
	(0.707107, 0.707107, -1) //5
	(5, 2.5, -1) //6
	(0.989949, 2.5, -1) //7
	(0, 2.5, -1) //8
	(0, 1.4, -1) //9
	(0, 1, -1) //10
	(-1, 0, -1) //11
	(-1.4, 0, -1) //12
	(-5, 0, -1) //13
	(-5, 0.989949, -1) //14
	(-0.989949, 0.989949, -1) //15
	(-0.707107, 0.707107, -1) //16
	(-5, 2.5, -1) //17
	(-0.989949, 2.5, -1) //18
	(5, -0.989949, -1) //19
	(0.989949, -0.989949, -1) //20
	(0.707107, -0.707107, -1) //21
	(5, -1.5, -1) //22
	(0.989949, -1.5, -1) //23
	(0, -1.5, -1) //24
	(0, -1.4, -1) //25
	(0, -1, -1) //26
	(-5, -0.989949, -1) //27
	(-0.989949, -0.989949, -1) //28
	(-0.707107, -0.707107, -1) //29
	(-5, -1.5, -1) //30
	(-0.989949, -1.5, -1) //31
	(1, 0, 1) //32
	(1.4, 0, 1) //33
	(5, 0, 1) //34
	(5, 0.989949, 1) //35
	(0.989949, 0.989949, 1) //36
	(0.707107, 0.707107, 1) //37
	(5, 2.5, 1) //38
	(0.989949, 2.5, 1) //39
	(0, 2.5, 1) //40
	(0, 1.4, 1) //41
	(0, 1, 1) //42
	(-1, 0, 1) //43
	(-1.4, 0, 1) //44
	(-5, 0, 1) //45
	(-5, 0.989949, 1) //46
	(-0.989949, 0.989949, 1) //47
	(-0.707107, 0.707107, 1) //48
	(-5, 2.5, 1) //49
	(-0.989949, 2.5, 1) //50
	(5, -0.989949, 1) //51
	(0.989949, -0.989949, 1) //52
	(0.707107, -0.707107, 1) //53
	(5, -1.5, 1) //54
	(0.989949, -1.5, 1) //55
	(0, -1.5, 1) //56
	(0, -1.4, 1) //57
	(0, -1, 1) //58
	(-5, -0.989949, 1) //59
	(-0.989949, -0.989949, 1) //60
	(-0.707107, -0.707107, 1) //61
	(-5, -1.5, 1) //62
	(-0.989949, -1.5, 1) //63

);

blocks
(
	 hex (5 4 9 10 37 36 41 42) (10 10 10) simpleGrading (1 1 1) 
	 hex (0 1 4 5 32 33 36 37) (10 10 10) simpleGrading (1 1 1) 
	 hex (1 2 3 4 33 34 35 36) (10 10 10) simpleGrading (1 1 1) 
	 hex (4 3 6 7 36 35 38 39) (10 10 10) simpleGrading (1 1 1) 
	 hex (9 4 7 8 41 36 39 40) (10 10 10) simpleGrading (1 1 1) 
	 hex (15 16 10 9 47 48 42 41) (10 10 10) simpleGrading (1 1 1) 
	 hex (12 11 16 15 44 43 48 47) (10 10 10) simpleGrading (1 1 1) 
	 hex (13 12 15 14 45 44 47 46) (10 10 10) simpleGrading (1 1 1) 
	 hex (14 15 18 17 46 47 50 49) (10 10 10) simpleGrading (1 1 1) 
	 hex (15 9 8 18 47 41 40 50) (10 10 10) simpleGrading (1 1 1) 
	 hex (26 25 20 21 58 57 52 53) (10 10 10) simpleGrading (1 1 1) 
	 hex (21 20 1 0 53 52 33 32) (10 10 10) simpleGrading (1 1 1) 
	 hex (20 19 2 1 52 51 34 33) (10 10 10) simpleGrading (1 1 1) 
	 hex (23 22 19 20 55 54 51 52) (10 10 10) simpleGrading (1 1 1) 
	 hex (24 23 20 25 56 55 52 57) (10 10 10) simpleGrading (1 1 1) 
	 hex (28 29 11 12 60 61 43 44) (10 10 10) simpleGrading (1 1 1) 
	 hex (25 26 29 28 57 58 61 60) (10 10 10) simpleGrading (1 1 1) 
	 hex (27 28 12 13 59 60 44 45) (10 10 10) simpleGrading (1 1 1) 
	 hex (30 31 28 27 62 63 60 59) (10 10 10) simpleGrading (1 1 1) 
	 hex (31 24 25 28 63 56 57 60) (10 10 10) simpleGrading (1 1 1) 

);

boundary
(
	left
	{
		type	patch;
		faces	
		(
			(14 46 49 17)
			(13 45 46 14)
			(27 59 45 13)
			(30 62 59 27)
		);
	}
	right
	{
		type	patch;
		faces	
		(
			(22 19 51 54)
			(19 2 34 51)
			(2 3 35 34)
			(3 6 38 35)
		);
	}
	down
	{
		type	wall;
		faces	
		(
			(30 31 63 62)
			(31 24 56 63)
			(24 23 55 56)
			(23 22 54 55)
		);
	}
	up
	{
		type	wall;
		faces	
		(
			(7 39 38 6)
			(8 40 39 7)
			(18 50 40 8)
			(17 49 50 18)
		);
	}
	cylinder
	{
		type	wall;
		faces	
		(
			(0 32 37 5)
			(5 37 42 10)
			(16 10 42 48)
			(11 16 48 43)
			(29 11 43 61)
			(26 29 61 58)
			(26 58 53 21)
			(21 53 32 0)
		);
	}
	side
	{
		type	patch;
		faces	
		(
			(36 35 38 39)
			(41 36 39 40)
			(47 41 40 50)
			(46 47 50 49)
			(45 44 47 46)
			(33 34 35 36)
			(52 51 34 33)
			(55 54 51 52)
		);
	}
);

edges(
	 arc 5 0 (0.92388 0.382683 -1)
	 arc 5 10 (0.382683 0.923879 -1)
	 arc 1 4 (1.29343 0.535757 -1)
	 arc 4 9 (0.535757 1.29343 -1)
	 arc 32 37 (0.92388 0.382683 1)
	 arc 37 42 (0.382683 0.923879 1)
	 arc 33 36 (1.29343 0.535757 1)
	 arc 36 41 (0.535757 1.29343 1)
	 arc 11 16 (-0.923879 0.382683 -1)
	 arc 16 10 (-0.382683 0.923879 -1)
	 arc 12 15 (-1.29343 0.535757 -1)
	 arc 15 9 (-0.535757 1.29343 -1)
	 arc 43 48 (-0.923879 0.382683 1)
	 arc 48 42 (-0.382683 0.923879 1)
	 arc 44 47 (-1.29343 0.535757 1)
	 arc 47 41 (-0.535757 1.29343 1)
	 arc 0 21 (0.923879 -0.382683 -1)
	 arc 21 26 (0.382683 -0.923879 -1)
	 arc 1 20 (1.29343 -0.535757 -1)
	 arc 20 25 (0.535757 -1.29343 -1)
	 arc 32 53 (0.923879 -0.382683 1)
	 arc 53 58 (0.382683 -0.923879 1)
	 arc 33 52 (1.29343 -0.535757 1)
	 arc 52 57 (0.535757 -1.29343 1)
	 arc 11 29 (-0.923879 -0.382683 -1)
	 arc 29 26 (-0.382683 -0.923879 -1)
	 arc 12 28 (-1.29343 -0.535757 -1)
	 arc 28 25 (-0.535757 -1.29343 -1)
	 arc 43 61 (-0.923879 -0.382683 1)
	 arc 61 58 (-0.382683 -0.923879 1)
	 arc 44 60 (-1.29343 -0.535757 1)
	 arc 60 57 (-0.535757 -1.29343 1)
);
