/*--------------------------------*- C++ -*----------------------------------*\ 
|             BlockMeshDict generated by hexBlocker                           | 
\*---------------------------------------------------------------------------*/ 
FoamFile 
{
	 version 	 2.0;
	 format 	 ascii;
	 class 		 dictionary; 
	 object 	 blockMeshDict; 
}
convertToMeters 1;

vertices
(
	(0 0 0) //0
	(1 0 0) //1
	(1 1 0) //2
	(0 1 0) //3
	(0 0 1) //4
	(1 0 1) //5
	(1 1 1) //6
	(0 1 1) //7

);

blocks
(
	 hex (0 1 2 3 4 5 6 7) (10 10 10) simpleGrading (1 1 1)
);

boundary
(
);

edges
(
	line 0 1	
	arc 5 4 (0.448482 -0.406893 1) 
	polyLine 0 3
	(
		(-0.1 0.25 0)
		(-0.2 0.5 0)
		(-0.1 0.75 0)
	)
);
